test/test_files/validation_tests/case2383wp_resqlim.m
function mpc = case2383wp_resqlim
%CASE2383WP_RESQLIM

%% MATPOWER Case Format : Version 2
mpc.version = '2';

%%-----  Power Flow Data  -----%%
%% system MVA base
mpc.baseMVA = 100;

%% bus data
%	bus_i	type	Pd	Qd	Gs	Bs	area	Vm	Va	baseKV	zone	Vmax	Vmin
mpc.bus = [
	1	1	0	0	0	0	1	9.39865578e-06	60.8779598	220	1	1.11	0.95;
	2	1	0	0	0	0	1	0.517478199	-156.877968	220	1	1.11	0.95;
	3	1	0	0	0	0	1	16.1860307	67.5567426	220	1	1.11	0.95;
	4	1	0	0	0	0	1	15.4279706	-162.776995	220	1	1.11	0.95;
	5	1	0	0	0	0	1	1.25732962	146.425727	220	1	1.11	0.95;
	6	1	0	0	0	0	1	4.39118975	74.8238122	400	1	1.05	0.95;
	7	1	0	0	0	0	1	24.1053979	-122.503588	220	1	1.11	0.95;
	8	1	0	0	0	0	1	11.4529933	-89.8101074	400	1	1.05	0.95;
	9	1	0	0	0	0	1	187.674986	173.560036	400	1	1.05	0.95;
	10	1	12.23	9	0	0	1	43.8376215	-75.6887628	220	1	1.11	0.95;
	11	1	0	0	0	0	1	0.0458635648	113.095194	220	1	1.11	0.95;
	12	1	0	0	0	0	1	0.263216701	-110.307742	220	1	1.11	0.95;
	13	1	0	0	0	0	1	1.30522585	69.8374261	220	1	1.11	0.95;
	14	1	0	0	0	0	1	19.4940544	180.735315	220	1	1.11	0.95;
	15	1	0	0	0	0	1	4.94161464	173.287565	400	1	1.05	0.95;
	16	1	54.88	100	0	0	1	2.37927126	-143.545371	220	1	1.11	0.95;
	17	1	77	150	0	0	1	1.5563706	-143.948425	220	1	1.11	0.95;
	18	1	153	350	0	0	1	2.18259202	0	400	1	1.05	0.95;
	19	1	0	0	0	0	1	61.9446674	-147.952394	220	1	1.11	0.95;
	20	1	0	0	0	0	1	0.184081716	-140.667777	400	1	1.05	0.95;
	21	1	0	0	0	0	1	27.6446549	170.979956	220	1	1.11	0.95;
	22	1	0	0	0	0	1	5.9828109	21.3313049	220	1	1.11	0.95;
	23	1	0	0	0	0	1	4.55767462	70.0321844	220	2	1.11	0.95;
	24	1	0	0	0	0	1	3.0431429	-71.1322054	220	2	1.11	0.95;
	25	1	0	0	0	0	1	2.17540176	185.795622	220	2	1.11	0.95;
	26	1	0	0	0	0	1	1.08658741	-154.153118	220	2	1.11	0.95;
	27	1	0	0	0	0	1	0.175820206	109.283323	220	2	1.11	0.95;
	28	1	0	0	0	0	1	0.0267740052	181.340024	220	2	1.11	0.95;
	29	1	25.98	60	0	0	1	0.124768518	99.0059115	220	2	1.11	0.95;
	30	1	25.98	60	0	0	1	0.0253730318	-8.37522119	220	2	1.11	0.95;
	31	1	20.98	50	0	0	1	0.104219461	-137.89194	400	2	1.05	0.95;
	32	1	0	0	0	0	1	0.00990600779	24.3695575	400	2	1.05	0.95;
	33	1	0	0	0	0	1	0.998868808	49.2953388	220	2	1.11	0.95;
	34	1	0	0	0	0	1	0.0895202002	-46.0004821	400	2	1.05	0.95;
	35	1	0	0	0	0	1	0.121575313	-9.70101554	400	2	1.05	0.95;
	36	1	0	0	0	0	1	0.247776149	11.9977698	400	2	1.05	0.95;
	37	1	0	0	0	0	1	0.0252066794	86.4645716	220	2	1.11	0.95;
	38	1	0	0	0	0	1	0.000901833756	-75.7826777	220	2	1.11	0.95;
	39	1	0	0	0	0	1	0.000679542917	-91.6586838	400	2	1.05	0.95;
	40	1	0	0	0	0	1	0.0339393776	-19.1230332	400	2	1.05	0.95;
	41	1	11.99	30	0	0	1	0.0222506844	-102.144238	220	2	1.11	0.95;
	42	1	11.99	30	0	0	1	0.01000915	67.0546704	220	2	1.11	0.95;
	43	1	23.98	60	0	0	1	0.0641792252	4.22503022	400	2	1.05	0.95;
	44	1	23.98	60	0	0	1	0.305286667	35.6949488	400	2	1.05	0.95;
	45	1	159.84	75	0	0	1	0.00603390964	-107.620919	220	2	1.11	0.95;
	46	1	0	0	0	0	1	0.0128171712	-37.3003131	220	2	1.11	0.95;
	47	1	0	0	0	0	1	0.62343984	26.855119	220	2	1.11	0.95;
	48	1	0	0	0	0	1	0.000100601584	-46.5532513	220	2	1.11	0.95;
	49	1	0	0	0	0	1	0.0453539749	-126.216982	220	2	1.11	0.95;
	50	1	0	0	0	0	1	0.38789371	166.466498	400	2	1.05	0.95;
	51	1	0	0	0	0	1	0.0503132766	75.3923332	400	2	1.05	0.95;
	52	1	0	0	0	0	1	0.813502075	175.20914	220	2	1.11	0.95;
	53	1	0	0	0	0	1	2.16948954	-27.4303603	220	2	1.11	0.95;
	54	1	0	0	0	0	1	1.26443144	175.077288	220	2	1.11	0.95;
	55	1	0	0	0	0	1	0.171270038	-130.911019	220	2	1.11	0.95;
	56	1	0	0	0	0	1	1.77256924	-46.1731726	220	3	1.11	0.95;
	57	1	22.98	10.96	0	0	1	0.799788908	34.9826991	220	3	1.11	0.95;
	58	1	21.98	5.79	0	0	1	0.0364366865	-21.1516845	220	3	1.11	0.95;
	59	1	0	0	0	0	1	1.71888096	-122.583225	220	3	1.11	0.95;
	60	1	0	0	0	0	1	1.42741399	-102.572013	220	3	1.11	0.95;
	61	1	0	0	0	0	1	0.0206593846	-1.38227579	220	3	1.11	0.95;
	62	1	0	0	0	0	1	0.150769253	97.3920363	220	3	1.11	0.95;
	63	1	37.37	52.69	0	0	1	0.742730635	39.7756095	220	3	1.11	0.95;
	64	1	35.37	55.32	0	0	1	0.67055878	13.6453969	220	3	1.11	0.95;
	65	1	13.39	2.02	0	0	1	28.7098542	137.879792	220	3	1.11	0.95;
	66	1	0	0	0	0	1	296.263029	-11.2983215	220	3	1.11	0.95;
	67	1	60.4	92.1	0	0	1	173.51222	10.6954783	400	3	1.05	0.95;
	68	1	0	0	0	0	1	154.490959	-9.53540391	220	3	1.11	0.95;
	69	1	0	0	0	0	1	3.81675387	164.094068	220	3	1.11	0.95;
	70	1	0	0	0	0	1	82.4611419	155.597559	220	3	1.11	0.95;
	71	1	0	0	0	0	1	2.99730883	76.0027067	220	3	1.11	0.95;
	72	1	0	0	0	0	1	2.99730883	76.0027067	220	3	1.11	0.95;
	73	1	0	0	0	0	1	27.2615433	-23.3682559	220	3	1.11	0.95;
	74	1	0	0	0	0	1	13.2952899	-90.8020042	220	3	1.11	0.95;
	75	1	0	0	0	0	1	0.43666911	46.4562755	400	3	1.05	0.95;
	76	1	0	0	0	0	1	0.14057403	1.32911144	400	3	1.05	0.95;
	77	1	0	0	0	0	1	2.18975346	-99.5179473	220	3	1.11	0.95;
	78	1	0	0	0	0	1	31.5522081	40.2187538	220	3	1.11	0.95;
	79	1	0	0	0	0	1	0.00515979713	-28.6091819	220	3	1.11	0.95;
	80	1	0	0	0	0	1	3.75104312e-05	15.1416946	220	3	1.11	0.95;
	81	1	0	0	0	0	1	0.108317347	164.004012	220	3	1.11	0.95;
	82	1	0	0	0	0	1	0.993487215	50.5408284	220	3	1.11	0.95;
	83	1	15.99	22.97	0	0	1	0.0635364232	122.669288	220	3	1.11	0.95;
	84	1	15.79	22.27	0	0	1	0.191011592	25.4078275	220	3	1.11	0.95;
	85	1	9.99	17.01	0	0	1	0.863413162	14.1624445	220	3	1.11	0.95;
	86	1	9.99	16.66	0	0	1	0.619947518	69.1838364	220	3	1.11	0.95;
	87	1	11.09	16.22	0	0	1	0.0638324027	125.329497	220	3	1.11	0.95;
	88	1	0	0	0	0	1	0.0162455181	-38.5810865	220	3	1.11	0.95;
	89	1	0	0	0	0	1	13.4615992	-97.0054647	220	3	1.11	0.95;
	90	1	0	0	0	0	1	8.67739445	-57.284567	220	3	1.11	0.95;
	91	1	0	0	0	0	1	28.3473331	-68.7694165	220	3	1.11	0.95;
	92	1	0	0	0	0	1	37.6852963	185.144119	400	3	1.05	0.95;
	93	1	9.99	16.39	0	0	1	0.00220534461	-20.7545777	220	3	1.11	0.95;
	94	1	0	0	0	0	1	0.207827606	-25.1603174	220	3	1.11	0.95;
	95	1	6.89	8.15	0	0	1	0.138409932	-147.433309	220	3	1.11	0.95;
	96	1	0	0	0	0	1	0.0247690175	-8.00337364	220	3	1.11	0.95;
	97	1	8.69	5.26	0	0	1	0.580903867	-159.681304	220	3	1.11	0.95;
	98	1	0	0	0	0	1	8.09186191e-05	8.88130035	400	3	1.05	0.95;
	99	1	0	0	0	0	1	0.120809656	92.1779516	400	3	1.05	0.95;
	100	1	0	0	0	0	1	49.3320493	69.0858123	400	3	1.05	0.95;
	101	1	0	0	0	0	1	29.0321111	-38.2727605	400	3	1.05	0.95;
	102	1	0	0	0	0	1	6.03851643	6.94806768	220	3	1.11	0.95;
	103	1	18.09	23.76	0	0	1	0.828326282	-9.97305412	220	3	1.11	0.95;
	104	1	33.68	46.11	0	0	1	1.48810699	73.6921413	220	3	1.11	0.95;
	105	1	33.78	62.95	0	0	1	0.0551001874	-161.735364	400	3	1.05	0.95;
	106	1	0	0	0	0	1	9.2884034	-12.2354335	400	3	1.05	0.95;
	107	1	0	0	0	0	1	83.0284248	-136.544401	220	3	1.11	0.95;
	108	1	0	0	0	0	1	10.0624613	-163.825155	220	3	1.11	0.95;
	109	1	1	22.36	0	0	1	0.136351339	119.19067	220	3	1.11	0.95;
	110	1	1	22.18	0	0	1	0.0291117046	-90.083325	220	3	1.11	0.95;
	111	1	26.49	18	0	0	1	0.0343982293	-97.1502524	220	4	1.11	0.95;
	112	1	0	0	0	0	1	0.0770618414	95.2939243	220	4	1.11	0.95;
	113	1	0	0	0	0	1	461.561158	60.5590815	220	4	1.11	0.95;
	114	1	0	0	0	0	1	117.449949	181.299703	220	4	1.11	0.95;
	115	1	0	0	0	0	1	2.0705877	188.333088	400	4	1.05	0.95;
	116	1	0	0	0	0	1	1.38299995	-96.6720792	400	4	1.05	0.95;
	117	1	0	0	0	0	1	14.4247153	53.0453255	220	4	1.11	0.95;
	118	1	0	0	0	0	1	0.0215386126	-53.9836907	220	4	1.11	0.95;
	119	1	0	0	0	0	1	0.0215386126	-53.9836907	220	4	1.11	0.95;
	120	1	0	0	0	0	1	8.41996286	72.4609104	220	4	1.11	0.95;
	121	1	0	0	0	0	1	40.2654468	145.949914	220	4	1.11	0.95;
	122	1	0	0	0	0	1	40.2654468	145.949914	220	4	1.11	0.95;
	123	1	5.5	7	0	0	1	8.37103471	112.405818	220	4	1.11	0.95;
	124	1	8.79	17	0	0	1	15.414085	-105.645677	220	4	1.11	0.95;
	125	1	35.7	18.3	0	0	1	0.0890218005	-73.5451546	220	4	1.11	0.95;
	126	1	25.28	15.9	0	0	1	0.0530622654	-36.7206924	220	4	1.11	0.95;
	127	1	25.71	15.3	0	0	1	0.820421761	-152.952791	400	4	1.05	0.95;
	128	1	0	0	0	0	1	0.25903511	162.616041	400	4	1.05	0.95;
	129	1	0	0	0	0	1	25.8256617	-155.613995	220	4	1.11	0.95;
	130	1	0	0	0	0	1	76.0309797	-120.78996	220	4	1.11	0.95;
	131	1	68.67	70	0	0	1	0.145645969	142.387213	220	4	1.11	0.95;
	132	1	33	45	0	0	1	5.20521738	137.727024	220	4	1.11	0.95;
	133	1	0	0	0	0	1	0.203104276	156.347585	400	4	1.05	0.95;
	134	1	0	0	0	0	1	0.00206568728	-55.22206	400	4	1.05	0.95;
	135	1	0	0	0	0	1	0.771634632	-63.8245439	220	4	1.11	0.95;
	136	1	0	0	0	0	1	0.771634632	-63.8245439	220	4	1.11	0.95;
	137	1	0	0	0	0	1	51.2791552	84.6851488	400	4	1.05	0.95;
	138	1	0	0	0	0	1	51.2791552	84.6851488	400	4	1.05	0.95;
	139	1	33.2	22.6	0	0	1	0.101231608	-129.351426	220	4	1.11	0.95;
	140	1	29.23	19.6	0	0	1	1.01206673	-145.403862	220	4	1.11	0.95;
	141	1	0	0	0	0	1	43.7075112	15.0662794	220	4	1.11	0.95;
	142	1	0	0	0	0	1	0.0221725076	-145.435118	220	4	1.11	0.95;
	143	1	0	0	0	0	1	1.82326787	-116.712385	220	4	1.11	0.95;
	144	1	0	0	0	0	1	3.51748282	63.5895737	220	4	1.11	0.95;
	145	1	0	0	0	0	1	40.4712732	157.876772	400	4	1.05	0.95;
	146	1	0	0	0	0	1	40.4712732	157.876772	400	4	1.05	0.95;
	147	1	0	0	0	0	1	10.1553849	-90.3841067	220	4	1.11	0.95;
	148	1	0	0	0	0	1	3.18095556	-163.822494	220	4	1.11	0.95;
	149	1	0	0	0	0	1	71.9939196	13.2062045	220	4	1.11	0.95;
	150	1	0	0	0	0	1	0.0969572636	182.283939	220	4	1.11	0.95;
	151	1	0	0	0	0	1	1.60408344	61.2781503	220	4	1.11	0.95;
	152	1	0	0	0	0	1	46.0447458	143.736115	220	4	1.11	0.95;
	153	1	0	0	0	0	1	46.0447458	143.736115	220	4	1.11	0.95;
	154	1	0	0	0	0	1	54.1365731	-7.64614125	220	4	1.11	0.95;
	155	1	0	0	0	0	1	0.357953503	-83.4451294	220	5	1.11	0.95;
	156	1	0	0	0	0	1	2.80009952	2.82694538	220	5	1.11	0.95;
	157	1	0	0	0	0	1	2.13479474	-119.721123	400	5	1.05	0.95;
	158	1	0	0	0	0	1	0.763772819	20.2137819	400	5	1.05	0.95;
	159	1	0	0	0	0	1	1.7571156	-50.9430151	400	5	1.05	0.95;
	160	1	0	0	0	0	1	1.73524833	-18.7307639	400	5	1.05	0.95;
	161	1	0	0	0	0	1	0.0208842393	-65.868007	220	5	1.11	0.95;
	162	1	0	0	0	0	1	0.207598875	165.32311	220	5	1.11	0.95;
	163	1	0	0	0	0	1	0.239409246	-77.1222009	220	5	1.11	0.95;
	164	1	0	0	0	0	1	0.116008051	99.6203922	220	5	1.11	0.95;
	165	1	0	0	0	0	1	41.2535787	-132.998414	400	5	1.05	0.95;
	166	1	0	0	0	0	1	0.0421786006	53.887716	220	5	1.11	0.95;
	167	1	0	0	0	0	1	0.00931704849	-121.259015	220	5	1.11	0.95;
	168	1	0	0	0	0	1	0.00882772426	106.761503	400	5	1.05	0.95;
	169	1	0	0	0	0	1	0.0186849073	-93.5655061	400	5	1.05	0.95;
	170	1	0	0	0	0	1	1.33996769	20.3158171	220	5	1.11	0.95;
	171	1	0	0	0	0	1	1.20512176	134.753762	220	5	1.11	0.95;
	172	1	0	0	0	0	1	0.19590156	91.5525154	220	5	1.11	0.95;
	173	1	0	0	0	0	1	0.142872317	42.8481645	220	5	1.11	0.95;
	174	1	0	0	0	0	1	0.20757119	-33.0082125	220	5	1.11	0.95;
	175	1	0	0	0	0	1	0.47278282	-97.8921551	220	5	1.11	0.95;
	176	1	0	40	0	0	1	0.0405938576	136.936649	400	5	1.05	0.95;
	177	1	0	40	0	0	1	0.0468805832	-129.543659	400	5	1.05	0.95;
	178	1	0	0	0	0	1	0.231168541	6.66491435	220	5	1.11	0.95;
	179	1	0	0	0	0	1	0.0369401207	116.182951	220	5	1.11	0.95;
	180	3	339.85	49.6	0	0	2	1	6.47007485	400	6	1.05	0.95;
	181	2	0	0	0	0	3	1	-3.7760673	220	6	1.11	0.95;
	182	2	0	0	0	0	5	1	99.9811091	400	6	1.05	0.95;
	183	1	150	0	0	0	3	0.11723257	189.882323	400	6	1.05	0.95;
	184	2	317.34	50.3	0	0	2	1	57.8339617	220	6	1.11	0.95;
	185	2	362.43	36.7	0	0	2	1	152.351502	400	6	1.05	0.95;
	186	2	33.33	1	0	0	5	1	-156.491661	220	6	1.11	0.95;
	187	1	7.12	1.5	0	0	1	3.25352621	121.57456	110	1	1.12	0.95;
	188	1	7.63	1	0	0	1	14.0024921	61.7568625	110	1	1.12	0.95;
	189	1	9.77	8.7	0	0	1	0.0327022766	-96.5249054	110	1	1.12	0.95;
	190	1	6.12	1.5	0	0	1	1.02267417	-54.485708	110	1	1.12	0.95;
	191	1	6.12	1.6	0	0	1	0.184754717	52.4722761	110	1	1.12	0.95;
	192	1	30.56	12	0	0	1	0.0676448806	-56.2603698	110	1	1.12	0.95;
	193	1	15.28	3	0	0	1	26.4345084	-72.6171517	110	1	1.12	0.95;
	194	1	0	0	0	0	1	0.0947986207	-163.107187	110	1	1.12	0.95;
	195	1	8.14	2	0	0	1	0.272704514	-121.324252	110	1	1.12	0.95;
	196	1	6.92	1.5	0	0	1	1.08316213	140.030146	110	1	1.12	0.95;
	197	1	6.92	1.5	0	0	1	1.00273269	-158.347479	110	1	1.12	0.95;
	198	1	12.32	1.7	0	0	1	1.85424037	161.264159	110	1	1.12	0.95;
	199	1	1.43	0.5	0	0	1	0.213597385	73.4922341	110	1	1.12	0.95;
	200	1	1.08	0.5	0	0	1	0.440987739	179.580441	110	1	1.12	0.95;
...
];

%% generator data
%	bus	Pg	Qg	Qmax	Qmin	Vg	mBase	status	Pmax	Pmin	Pc1	Pc2	Qc1min	Qc1max	Qc2min	Qc2max	ramp_agc	ramp_10	ramp_30	ramp_q	apf
mpc.gen = [
	10	400	120	120	0	1	168	1	400	70	0	0	0	0	0	0	0	0	0	0	0;
	16	720	-40	440	-40	1	823	1	720	120	0	0	0	0	0	0	0	0	0	0	0;
	17	1080	660	660	-60	1	1234	1	1080	120	0	0	0	0	0	0	0	0	0	0	0;
	18	2107201.19	1540	1540	-140	1	2879	1	2520	120	0	0	0	0	0	0	0	0	0	0	0;
	29	70	0	240	0	1	511	1	400	70	0	0	0	0	0	0	0	0	0	0	0;
	30	70	240	240	0	1	511	1	800	70	0	0	0	0	0	0	0	0	0	0	0;
	31	1000	350	350	0	1	420	1	1000	150	0	0	0	0	0	0	0	0	0	0	0;
	41	200	0	120	0	1	241	1	200	70	0	0	0	0	0	0	0	0	0	0	0;
	42	70	0	120	0	1	241	1	410	70	0	0	0	0	0	0	0	0	0	0	0;
	43	410	240	240	0	1	482	1	410	70	0	0	0	0	0	0	0	0	0	0	0;
	44	410	240	240	0	1	482	1	410	70	0	0	0	0	0	0	0	0	0	0	0;
	45	42.2	21	21	0	1	49	1	42.2	39.14	0	0	0	0	0	0	0	0	0	0	0;
	63	650	302	302	0	1	473	1	650	145	0	0	0	0	0	0	0	0	0	0	0;
	64	450	311	311	2	1	475	1	450	145	0	0	0	0	0	0	0	0	0	0	0;
	67	750	449	449	0	1	864	1	750	220	0	0	0	0	0	0	0	0	0	0	0;
	83	225	-89	190	-89	1	239	1	225	140	0	0	0	0	0	0	0	0	0	0	0;
	84	225	190	190	-89	1	251	1	225	140	0	0	0	0	0	0	0	0	0	0	0;
	85	120	-50	125	-50	1	133	1	120	40	0	0	0	0	0	0	0	0	0	0	0;
	86	120	-50	125	-50	1	133	1	120	40	0	0	0	0	0	0	0	0	0	0	0;
	93	120	90	90	5	1	123	1	120	80	0	0	0	0	0	0	0	0	0	0	0;
	95	110	27	68	27	1	105	1	110	50	0	0	0	0	0	0	0	0	0	0	0;
	97	87.6	27	68	27	1	105	1	87.6	83.26	0	0	0	0	0	0	0	0	0	0	0;
	103	160	-82	177	-82	1	239	1	400	160	0	0	0	0	0	0	0	0	0	0	0;
	104	225	379	379	-177	1	490	1	225	140	0	0	0	0	0	0	0	0	0	0	0;
	105	430	353	353	-165	1	502	1	430	160	0	0	0	0	0	0	0	0	0	0	0;
	109	250	65	65	0	1	277	1	250	80	0	0	0	0	0	0	0	0	0	0	0;
	110	250	65	65	0	1	280	1	250	80	0	0	0	0	0	0	0	0	0	0	0;
	111	360	270	270	0	1	401	1	360	40	0	0	0	0	0	0	0	0	0	0	0;
	123	20	40	40	0	1	98	1	110	20	0	0	0	0	0	0	0	0	0	0	0;
	124	125	0	90	0	1	132	1	125	45	0	0	0	0	0	0	0	0	0	0	0;
	125	70	0	360	0	1	654	1	860	70	0	0	0	0	0	0	0	0	0	0	0;
	127	690	360	360	0	1	540	1	690	70	0	0	0	0	0	0	0	0	0	0	0;
	131	645.377	0	360	0	1	696	1	1060	70	0	0	0	0	0	0	0	0	0	0	0;
	132	70	0	480	0	1	732	1	600	70	0	0	0	0	0	0	0	0	0	0	0;
	139	408.67	360	360	0	1	714	1	600	70	0	0	0	0	0	0	0	0	0	0	0;
	140	200	120	120	0	1	240	1	200	70	0	0	0	0	0	0	0	0	0	0	0;
	176	600	220	220	-120	1	430	1	600	70	0	0	0	0	0	0	0	0	0	0	0;
	177	200	220	220	-120	1	430	1	200	70	0	0	0	0	0	0	0	0	0	0	0;
	180	15044.2245	-54554.3254	99999	-99999	1	7485	1	0	0	0	0	0	0	0	0	0	0	0	0	0;
	181	175	1249.57895	99999	-99999	1	210	1	175	174	0	0	0	0	0	0	0	0	0	0	0;
	182	307.59	55875.3138	99999	-99999	1	13465	1	307.59	306	0	0	0	0	0	0	0	0	0	0	0;
	184	0	2522.50929	99999	-99999	1	8353	1	0	0	0	0	0	0	0	0	0	0	0	0	0;
	185	0	5430.10333	99999	-99999	1	14254	1	0	0	0	0	0	0	0	0	0	0	0	0	0;
	186	0	12615.7929	99999	-99999	1	7401	1	0	0	0	0	0	0	0	0	0	0	0	0	0;
	192	95	0	50	0	1	114	1	95	90.25	0	0	0	0	0	0	0	0	0	0	0;
	196	0.9	1	1	0	1	1	1	0.9	0.86	0	0	0	0	0	0	0	0	0	0	0;
	198	0.8	1	1	0	1	1	1	0.8	0.76	0	0	0	0	0	0	0	0	0	0	0;
	205	15	0	10	0	1	18	1	15	14.25	0	0	0	0	0	0	0	0	0	0	0;
	213	11	8	8	0	1	13	1	11	10.45	0	0	0	0	0	0	0	0	0	0	0;
	264	2.5	2	2	0	1	3	1	2.5	2.38	0	0	0	0	0	0	0	0	0	0	0;
	269	6	0	5	0	1	7	1	6	5.7	0	0	0	0	0	0	0	0	0	0	0;
	277	70	42	42	0	1	84	1	70	66.5	0	0	0	0	0	0	0	0	0	0	0;
	278	60	40	40	0	1	72	1	60	57	0	0	0	0	0	0	0	0	0	0	0;
	279	60	40	40	0	1	72	1	60	57	0	0	0	0	0	0	0	0	0	0	0;
	281	120	0	90	0	1	144	1	120	114	0	0	0	0	0	0	0	0	0	0	0;
	282	40	0	40	0	1	48	1	40	38	0	0	0	0	0	0	0	0	0	0	0;
	289	2.5	3	3	0	1	3	1	2.5	2.38	0	0	0	0	0	0	0	0	0	0	0;
	294	2	1	1	0	1	2	1	2	1.9	0	0	0	0	0	0	0	0	0	0	0;
	314	1.5	1	1	0	1	2	1	1.5	1.43	0	0	0	0	0	0	0	0	0	0	0;
	328	44	0	21	0	1	53	1	44	41.8	0	0	0	0	0	0	0	0	0	0	0;
	329	44	21	21	0	1	53	1	44	41.8	0	0	0	0	0	0	0	0	0	0	0;
	330	44	0	21	0	1	53	1	44	41.8	0	0	0	0	0	0	0	0	0	0	0;
	331	43	0	21	0	1	52	1	43	40.85	0	0	0	0	0	0	0	0	0	0	0;
	334	1.5	1	1	0	1	2	1	1.5	1.43	0	0	0	0	0	0	0	0	0	0	0;
	346	200	0	120	0	1	180	1	200	70	0	0	0	0	0	0	0	0	0	0	0;
	347	10	0	15	0	1	12	1	10	10	0	0	0	0	0	0	0	0	0	0	0;
	359	1.5	0	1	0	1	2	1	1.5	1.43	0	0	0	0	0	0	0	0	0	0	0;
	365	5.1	3	3	0	1	6	1	5.1	4.85	0	0	0	0	0	0	0	0	0	0	0;
	382	8	5	5	0	1	10	1	8	7.6	0	0	0	0	0	0	0	0	0	0	0;
	383	8	5	5	0	1	10	1	8	7.6	0	0	0	0	0	0	0	0	0	0	0;
	385	6	4	4	0	1	7	1	6	5.7	0	0	0	0	0	0	0	0	0	0	0;
	390	4.5	3	3	0	1	5	1	4.5	4.28	0	0	0	0	0	0	0	0	0	0	0;
	395	10	0	8	0	1	12	1	10	9.5	0	0	0	0	0	0	0	0	0	0	0;
	404	3	3	3	0	1	4	1	3	2.85	0	0	0	0	0	0	0	0	0	0	0;
	426	3.2	2	2	0	1	4	1	3.2	3.04	0	0	0	0	0	0	0	0	0	0	0;
	444	1	1	1	0	1	1	1	1	0.95	0	0	0	0	0	0	0	0	0	0	0;
	451	4.5	3	3	0	1	5	1	4.5	4.28	0	0	0	0	0	0	0	0	0	0	0;
	482	1	0	1	0	1	1	1	1	0.95	0	0	0	0	0	0	0	0	0	0	0;
	492	2	0	1	0	1	2	1	2	1.9	0	0	0	0	0	0	0	0	0	0	0;
	493	234	0	130	0	1	281	1	234	222.3	0	0	0	0	0	0	0	0	0	0	0;
	494	234	130	130	0	1	281	1	234	222.3	0	0	0	0	0	0	0	0	0	0	0;
	514	115	0	90	0	1	138	1	115	109.25	0	0	0	0	0	0	0	0	0	0	0;
	515	115	90	90	0	1	138	1	115	109.25	0	0	0	0	0	0	0	0	0	0	0;
	525	6	4	4	0	1	7	1	6	5.7	0	0	0	0	0	0	0	0	0	0	0;
	536	6	6	6	0	1	7	1	6	5.7	0	0	0	0	0	0	0	0	0	0	0;
	537	3.5	3	3	0	1	4	1	3.5	3.33	0	0	0	0	0	0	0	0	0	0	0;
	556	2.7	1	1	0	1	3	1	2.7	2.57	0	0	0	0	0	0	0	0	0	0	0;
	580	1.6	0	1	0	1	2	1	1.6	1.52	0	0	0	0	0	0	0	0	0	0	0;
	584	2.7	2	2	0	1	3	1	2.7	2.57	0	0	0	0	0	0	0	0	0	0	0;
	585	4	2	2	0	1	5	1	4	3.8	0	0	0	0	0	0	0	0	0	0	0;
	607	0.8	0	0	0	1	1	1	0.8	0.76	0	0	0	0	0	0	0	0	0	0	0;
	612	152.955	120	120	0	1	256	1	200	70	0	0	0	0	0	0	0	0	0	0	0;
	613	200	120	120	0	1	256	1	200	70	0	0	0	0	0	0	0	0	0	0	0;
	615	1.4	1	1	0	1	2	1	1.4	1.33	0	0	0	0	0	0	0	0	0	0	0;
	623	7.6	5	5	0	1	9	1	7.6	7.22	0	0	0	0	0	0	0	0	0	0	0;
	639	9.6	0	4	0	1	12	1	9.6	9.12	0	0	0	0	0	0	0	0	0	0	0;
	651	4.7	2	2	0	1	6	1	4.7	4.47	0	0	0	0	0	0	0	0	0	0	0;
	654	1.4	0	1	0	1	2	1	1.4	1.33	0	0	0	0	0	0	0	0	0	0	0;
	664	6.2	6	6	0	1	7	1	6.2	5.89	0	0	0	0	0	0	0	0	0	0	0;
	670	2.7	2	2	0	1	3	1	2.7	2.57	0	0	0	0	0	0	0	0	0	0	0;
	674	1	0	0	0	1	1	1	1	0.95	0	0	0	0	0	0	0	0	0	0	0;
	688	70	0	120	0	1	242	1	202	70	0	0	0	0	0	0	0	0	0	0	0;
	692	1.4	1	1	0	1	2	1	1.4	1.33	0	0	0	0	0	0	0	0	0	0	0;
	699	3.8	2	2	0	1	5	1	3.8	3.61	0	0	0	0	0	0	0	0	0	0	0;
	712	1.2	1	1	0	1	1	1	1.2	1.14	0	0	0	0	0	0	0	0	0	0	0;
	730	6.9	0	3	0	1	8	1	6.9	6.56	0	0	0	0	0	0	0	0	0	0	0;
	732	1.1	1	1	0	1	1	1	1.1	1.05	0	0	0	0	0	0	0	0	0	0	0;
	735	4.1	0	2	0	1	5	1	4.1	3.9	0	0	0	0	0	0	0	0	0	0	0;
	740	4	0	1	0	1	5	1	4	3.8	0	0	0	0	0	0	0	0	0	0	0;
	744	134	0	60	0	1	161	1	134	127.3	0	0	0	0	0	0	0	0	0	0	0;
	754	80	0	30	0	1	54	1	80	10	0	0	0	0	0	0	0	0	0	0	0;
	755	85	0	80	0	1	110	1	250	85	0	0	0	0	0	0	0	0	0	0	0;
	760	3.1	2	2	0	1	4	1	3.1	2.95	0	0	0	0	0	0	0	0	0	0	0;
	766	2.1	1	1	0	1	3	1	2.1	2	0	0	0	0	0	0	0	0	0	0	0;
	784	0.7	0	0	0	1	1	1	0.7	0.67	0	0	0	0	0	0	0	0	0	0	0;
	790	49.8	35	35	35	1	60	1	49.8	47.31	0	0	0	0	0	0	0	0	0	0	0;
	795	1.89	1	1	1	1	2	1	1.89	1.8	0	0	0	0	0	0	0	0	0	0	0;
	798	2.99	3	3	3	1	4	1	2.99	2.84	0	0	0	0	0	0	0	0	0	0	0;
	814	44.92	42	42	0	1	54	1	44.92	42.67	0	0	0	0	0	0	0	0	0	0	0;
	834	55	83	83	0	1	110	1	55	23	0	0	0	0	0	0	0	0	0	0	0;
	878	2.99	0	0	0	1	4	1	2.99	2.84	0	0	0	0	0	0	0	0	0	0	0;
	884	2.49	0	0	0	1	3	1	2.49	2.37	0	0	0	0	0	0	0	0	0	0	0;
	892	31.87	42	42	6	1	38	1	31.87	30.28	0	0	0	0	0	0	0	0	0	0	0;
	895	8.96	7	7	7	1	11	1	8.96	8.51	0	0	0	0	0	0	0	0	0	0	0;
	901	3.68	2	2	2	1	4	1	3.68	3.5	0	0	0	0	0	0	0	0	0	0	0;
	910	4.58	3	3	3	1	6	1	4.58	4.35	0	0	0	0	0	0	0	0	0	0	0;
	911	370	0	224	0	1	415	1	370	280	0	0	0	0	0	0	0	0	0	0	0;
	912	370	0	224	0	1	415	1	370	280	0	0	0	0	0	0	0	0	0	0	0;
	914	15.93	10	10	10	1	19	1	15.93	15.13	0	0	0	0	0	0	0	0	0	0	0;
	917	2.09	0	0	0	1	3	1	2.09	1.99	0	0	0	0	0	0	0	0	0	0	0;
	919	21.91	12	12	12	1	26	1	21.91	20.81	0	0	0	0	0	0	0	0	0	0	0;
	920	1.99	0	0	0	1	2	1	1.99	1.89	0	0	0	0	0	0	0	0	0	0	0;
	929	63.73	29	50	29	1	77	1	63.73	60.54	0	0	0	0	0	0	0	0	0	0	0;
	959	2.49	1	1	1	1	3	1	2.49	2.37	0	0	0	0	0	0	0	0	0	0	0;
	968	0.7	0	0	0	1	1	1	0.7	0.67	0	0	0	0	0	0	0	0	0	0	0;
	993	3.98	1	1	1	1	5	1	3.98	3.78	0	0	0	0	0	0	0	0	0	0	0;
	994	1.99	1	1	1	1	2	1	1.99	1.89	0	0	0	0	0	0	0	0	0	0	0;
	995	20	38	38	0	1	60	1	100	20	0	0	0	0	0	0	0	0	0	0	0;
	996	20	38	38	0	1	60	1	50	20	0	0	0	0	0	0	0	0	0	0	0;
	997	20	38	38	0	1	60	1	50	20	0	0	0	0	0	0	0	0	0	0	0;
	1004	4.28	3	3	3	1	5	1	4.28	4.07	0	0	0	0	0	0	0	0	0	0	0;
	1024	0.1	0	0	0	1	0	1	0.1	0.1	0	0	0	0	0	0	0	0	0	0	0;
	1027	24.9	13	13	13	1	30	1	24.9	23.66	0	0	0	0	0	0	0	0	0	0	0;
	1028	2.99	3	3	3	1	4	1	2.99	2.84	0	0	0	0	0	0	0	0	0	0	0;
	1029	24.9	14	14	14	1	30	1	24.9	23.66	0	0	0	0	0	0	0	0	0	0	0;
	1053	59.76	0	53	0	1	72	1	59.76	56.77	0	0	0	0	0	0	0	0	0	0	0;
	1054	29.88	31	31	0	1	36	1	29.88	28.39	0	0	0	0	0	0	0	0	0	0	0;
	1105	7.97	10	10	10	1	10	1	7.97	7.57	0	0	0	0	0	0	0	0	0	0	0;
	1106	22.91	13	13	13	1	28	1	22.91	21.76	0	0	0	0	0	0	0	0	0	0	0;
	1107	10.56	3	3	3	1	13	1	10.56	10.03	0	0	0	0	0	0	0	0	0	0	0;
	1138	44.82	41	41	0	1	54	1	44.82	42.58	0	0	0	0	0	0	0	0	0	0	0;
	1140	230	199	199	-87	1	252	1	230	70	0	0	0	0	0	0	0	0	0	0	0;
	1141	94.917	190	190	-89	1	251	1	225	70	0	0	0	0	0	0	0	0	0	0	0;
	1175	37.84	20	20	20	1	45	1	37.84	35.95	0	0	0	0	0	0	0	0	0	0	0;
	1182	40	125	125	-50	1	133	1	120	40	0	0	0	0	0	0	0	0	0	0	0;
	1183	120	-50	125	-50	1	133	1	120	40	0	0	0	0	0	0	0	0	0	0	0;
	1184	120	125	125	-50	1	133	1	120	40	0	0	0	0	0	0	0	0	0	0	0;
	1191	106.56	-47	129	-47	1	128	1	106.56	101.23	0	0	0	0	0	0	0	0	0	0	0;
	1192	250	-50	125	-50	1	123	1	250	80	0	0	0	0	0	0	0	0	0	0	0;
	1201	99.59	90	90	0	1	120	1	99.59	94.61	0	0	0	0	0	0	0	0	0	0	0;
	1202	99.59	90	90	0	1	120	1	99.59	94.61	0	0	0	0	0	0	0	0	0	0	0;
	1203	99.59	90	90	0	1	120	1	99.59	94.61	0	0	0	0	0	0	0	0	0	0	0;
	1232	51.79	0	41	0	1	62	1	51.79	49.2	0	0	0	0	0	0	0	0	0	0	0;
	1233	14.94	0	41	0	1	18	1	14.94	14.19	0	0	0	0	0	0	0	0	0	0	0;
	1244	18.92	20	20	20	1	23	1	18.92	17.97	0	0	0	0	0	0	0	0	0	0	0;
	1247	15.93	12	12	12	1	19	1	15.93	15.13	0	0	0	0	0	0	0	0	0	0	0;
	1250	197.19	0	151	0	1	237	1	197.19	187.33	0	0	0	0	0	0	0	0	0	0	0;
	1268	0.5	0	0	0	1	1	1	0.5	0.48	0	0	0	0	0	0	0	0	0	0	0;
	1316	1	0	0	0	1	1	1	1	0.95	0	0	0	0	0	0	0	0	0	0	0;
	1325	1.39	0	0	0	1	2	1	1.39	1.32	0	0	0	0	0	0	0	0	0	0	0;
	1349	1.49	0	0	0	1	2	1	1.49	1.42	0	0	0	0	0	0	0	0	0	0	0;
	1356	1	2	2	2	1	1	1	1	0.95	0	0	0	0	0	0	0	0	0	0	0;
	1359	0.8	1	1	1	1	1	1	0.8	0.76	0	0	0	0	0	0	0	0	0	0	0;
	1393	12.75	11	11	0	1	15	1	12.75	12.11	0	0	0	0	0	0	0	0	0	0	0;
	1403	4.28	1	1	1	1	5	1	4.28	4.07	0	0	0	0	0	0	0	0	0	0	0;
	1416	371	10	180	10	1	246	1	371	80	0	0	0	0	0	0	0	0	0	0	0;
	1417	120	5	120	5	1	123	1	120	80	0	0	0	0	0	0	0	0	0	0	0;
	1418	20	90	90	5	1	123	1	20	5	0	0	0	0	0	0	0	0	0	0	0;
	1426	495	27	68	27	1	106	1	495	20	0	0	0	0	0	0	0	0	0	0	0;
	1429	0.2	0	0	0	1	0	1	0.2	0.19	0	0	0	0	0	0	0	0	0	0	0;
	1469	0.6	0	0	0	1	1	1	0.6	0.57	0	0	0	0	0	0	0	0	0	0	0;
	1475	2.09	2	2	2	1	3	1	2.09	1.99	0	0	0	0	0	0	0	0	0	0	0;
	1504	31.17	2	2	2	1	37	1	31.17	29.61	0	0	0	0	0	0	0	0	0	0	0;
	1505	48.8	4	4	4	1	59	1	48.8	46.36	0	0	0	0	0	0	0	0	0	0	0;
	1514	2.29	1	1	1	1	3	1	2.29	2.18	0	0	0	0	0	0	0	0	0	0	0;
	1534	0.3	0	0	0	1	0	1	0.3	0.29	0	0	0	0	0	0	0	0	0	0	0;
	1536	160	-89	190	-89	1	251	1	225	160	0	0	0	0	0	0	0	0	0	0	0;
	1537	225	-95	203	-95	1	255	1	225	160	0	0	0	0	0	0	0	0	0	0	0;
	1538	215	190	190	-89	1	255	1	215	70	0	0	0	0	0	0	0	0	0	0	0;
	1542	8.96	3	3	3	1	11	1	8.96	8.51	0	0	0	0	0	0	0	0	0	0	0;
	1543	1.2	0	0	0	1	1	1	1.2	1.14	0	0	0	0	0	0	0	0	0	0	0;
	1550	1.79	1	1	1	1	2	1	1.79	1.7	0	0	0	0	0	0	0	0	0	0	0;
	1566	54.77	20	47	20	1	66	1	54.77	52.03	0	0	0	0	0	0	0	0	0	0	0;
	1587	63.74	27	27	27	1	77	1	63.74	60.55	0	0	0	0	0	0	0	0	0	0	0;
	1600	17.43	3	3	3	1	21	1	17.43	16.56	0	0	0	0	0	0	0	0	0	0	0;
	1602	120	90	90	0	1	144	1	120	40	0	0	0	0	0	0	0	0	0	0	0;
	1603	120	0	90	0	1	144	1	120	40	0	0	0	0	0	0	0	0	0	0	0;
	1609	0.3	0	0	0	1	0	1	0.3	0.29	0	0	0	0	0	0	0	0	0	0	0;
	1617	2	0	0	0	1	2	1	2	1.9	0	0	0	0	0	0	0	0	0	0	0;
	1620	1.6	0	0	0	1	2	1	1.6	1.52	0	0	0	0	0	0	0	0	0	0	0;
...
];

%% branch data
%	fbus	tbus	r	x	b	rateA	rateB	rateC	ratio	angle	status	angmin	angmax	Pf	Qf	Pt	Qt
mpc.branch = [
	16	1	0.00155	0.01169	0.0182	160	160	160	0	0	1	-360	360	6309.9901	47583.7900	-0.0550	0.1815;
	355	1	0.00157	0.06612	0	160	160	160	1.0099	0	1	-360	360	4.1670	175.4777	-0.0003	0.0048;
	17	2	0.00155	0.01169	0.0182	160	160	160	0	0	1	-360	360	3339.9418	13561.1176	-2091.3944	-4147.1018;
	354	2	0.00157	0.06612	0	160	160	160	1.022	0	1	-360	360	2.4910	-1.8689	7.0336	402.9955;
	10	3	0.01068	0.07895	0.1226	274	274	274	0	0	1	-360	360	-109113.7835	3157177.8648	667873.2122	959965.5750;
	219	3	0.00165	0.06736	0	160	160	160	1.027	0	1	-360	360	205409.3425	29620.7537	-197426.8667	296257.7719;
	220	3	0.00165	0.06736	0	160	160	160	0.9955	0	1	-360	360	313016.5131	234274.6874	-297592.4118	395402.5646;
	7	4	0.01674	0.09711	0.14423	377	377	377	0	0	1	-360	360	291673.6711	251703.0092	-248300.4263	-5998.4368;
	11	4	0.00293	0.01599	0.02478	335	335	335	0	0	1	-360	360	-4336.8620	355.1009	268082.4262	1438698.6464;
	14	4	0.00442	0.03223	0.04985	464	464	464	0	0	1	-360	360	-221677.7807	313757.7010	238912.6552	-189623.9570;
	16	4	0.00888	0.06665	0.08896	377	377	377	0	0	1	-360	360	12128.9688	-45148.9378	22118.7449	301115.7234;
	22	4	0.00783	0.043	0.04962	350	350	350	0	0	1	-360	360	37522.3040	290426.2672	150181.7171	739708.3038;
	245	4	0.00165	0.06901	0	160	160	160	1.0594	0	1	-360	360	83.5565	-156.1067	8151.0132	344560.7479;
	246	4	0.00165	0.06901	0	160	160	160	1.0448	0	1	-360	360	-957.1019	1200.2484	9255.1452	345859.1227;
	5	6	0.00064	0.0305	0	400	400	400	1.0435	-0.6	1	-360	360	16498.6769	-888.6531	-15295.2410	58239.8925;
	7	5	0.00525	0.03988	0.06195	381	381	381	0	0	1	-360	360	263420.3905	1421988.9493	-73994.6467	15120.3199;
	10	5	0.01459	0.11219	0.16553	381	381	381	0	0	1	-360	360	256116.8307	1700162.7944	-27558.0821	41424.4164;
	309	5	0.00165	0.0686	0	160	160	160	1.0646	0	1	-360	360	-35.2697	-23.4132	89.4807	2277.2776;
	309	5	0.00165	0.0686	0	160	160	160	1.0523	0	1	-360	360	-35.6817	-23.6775	89.8791	2276.9752;
	6	8	0.00112	0.01329	0.34125	1316	1316	1316	0	0	1	-360	360	142244.4163	497668.3681	13556.0795	1348504.3291;
	6	9	0.00299	0.03675	0.9184	1427	1427	1427	0	0	1	-360	360	-2170130.6743	568749.9151	9975901.8583	93753473.6390;
	15	6	0.00298	0.03417	0.93504	1427	1427	1427	0	0	1	-360	360	69333.4558	73623.4547	-56645.7088	69816.7114;
	31	6	0.0015	0.01506	0.4032	1385	1385	1385	0	0	1	-360	360	1885.5351	2440.8562	11253.4225	129085.3230;
	310	6	0.0015	0.06188	0	250	250	250	1.0613	0	1	-360	360	-33.8067	47.5825	790.9881	31188.6749;
	12	7	0.01211	0.08742	0.14017	381	381	381	0	0	1	-360	360	550.9520	-7091.7495	87874.6981	641348.3409;
	13	7	0.00205	0.01326	0.02243	335	335	335	0	0	1	-360	360	-12590.5271	246586.9892	746192.1905	4497909.7012;
	19	7	0.0057	0.0407	0.06021	323	323	323	0	0	1	-360	360	-706238.8854	6202410.1006	1287241.4942	-2067148.6404;
	21	7	0.00093	0.00651	0.01113	160	160	160	0	0	1	-360	360	-8128301.6815	8821005.0287	9879284.6541	3435127.1215;
	29	7	0.01269	0.07498	0.1302	362	362	362	0	0	1	-360	360	-2086.7378	3377.5981	130585.6670	752086.9497;
	321	7	0.00041	0.03368	0	250	250	250	1.0323	0	1	-360	360	-25673.4695	-33840.9200	45828.0587	1689466.6874;
	322	7	0.00165	0.06775	0	160	160	160	1.0569	0	1	-360	360	17936.4551	51036.2781	5370.2846	905952.5806;
	8	18	0.00336	0.03977	1.02163	1316	1316	1316	0	0	1	-360	360	-34758.1455	325851.9697	63395.9699	6170.4330;
	332	9	0.00087	0.05244	-0.02144	330	330	330	1.0781	0	1	-360	360	-11486349.0703	6284643.6090	12765591.4517	70861801.3276;
	171	10	0.01409	0.10413	0.15972	464	464	464	0	0	1	-360	360	-19246.1278	47727.3412	276285.6526	1836525.5457;
	346	10	0.00124	0.06839	0	160	160	160	1.0054	0	1	-360	360	-66894.4771	38199.5626	119129.5797	2842734.8509;
	347	10	0.00124	0.06839	0	160	160	160	1.024	0	1	-360	360	691810.6425	-286693.4802	-655957.4706	2264111.5685;
	16	11	0.0057	0.03952	0.07553	464	464	464	0	0	1	-360	360	2296.0772	14035.4761	-253.4052	105.6630;
	17	11	0.0057	0.03952	0.07553	464	464	464	0	0	1	-360	360	1044.1703	6010.0221	-165.9599	69.7476;
	111	11	0.01068	0.06196	0.09496	394	394	394	0	0	1	-360	360	1.9334	3.7704	-0.3090	5.6378;
	352	11	0.00165	0.06901	0	160	160	160	1.0412	0	1	-360	360	4.0657	4.5640	-3.9402	0.6823;
	353	11	0.00165	0.06901	0	160	160	160	1.0559	0	1	-360	360	49.9225	693.4577	-34.0454	-29.4103;
	140	12	0.01465	0.10589	0.17085	464	464	464	0	0	1	-360	360	-38.5550	758.0531	122.8659	-157.9971;
	359	12	0.00155	0.06612	0	160	160	160	1.0395	0	1	-360	360	215.7244	1610.4671	-167.8688	430.9626;
	360	12	0.00157	0.06612	0	160	160	160	1.059	0	1	-360	360	8.6234	-23.0808	-7.5375	68.8114;
	29	13	0.01345	0.08114	0.14113	339	339	339	0	0	1	-360	360	70.0247	-167.7844	215.2517	1876.6439;
	365	13	0.00165	0.06901	0	160	160	160	1.0312	0	1	-360	360	200.3733	-310.7165	-157.8396	2089.6568;
	366	13	0.00165	0.06901	0	160	160	160	0.9872	0	1	-360	360	546.4011	-295.9878	-506.4552	1966.6973;
	17	14	0.00384	0.02853	0.04588	464	464	464	0	0	1	-360	360	50033.3807	-85023.4625	104236.0147	1230319.5426;
	367	14	0.00157	0.06798	0	160	160	160	1.0664	0	1	-360	360	-10491.7183	-71742.1751	19770.0529	473488.1548;
	368	14	0.00165	0.06901	0	160	160	160	1.0777	0	1	-360	360	-91829.1607	310793.2140	117388.7428	758216.9422;
	18	15	0.00358	0.04262	1.0944	1662	1662	1662	0	0	1	-360	360	91.3689	36041.6154	9812.5845	80268.3181;
	15	165	0.00207	0.02474	0.664	831	831	831	0	0	1	-360	360	-691909.8928	-331874.1337	1190636.6323	6235189.5208;
	374	15	0.0015	0.06188	0	250	250	250	1.1502	0	1	-360	360	-1043.6842	7995.4644	2356.8156	46175.5818;
	16	18	0.00036	0.02519	0	500	500	500	1.0605	0	1	-360	360	-11039.2055	35775.2006	12041.7415	34374.4744;
	16	73	0.00909	0.0624	0.11142	464	464	464	0	0	1	-360	360	-79244.4368	72835.5178	265338.5937	1200470.6648;
	17	18	0.00036	0.02519	0	500	500	500	1.0607	0	1	-360	360	-7211.5404	18928.7437	7897.6081	29076.9395;
	17	74	0.00868	0.06405	0.09699	464	464	464	0	0	1	-360	360	-27459.8993	-11885.1505	59532.0634	247677.7169;
	20	18	0.00063	0.00749	0.39226	1427	1427	1427	0	0	1	-360	360	-2991.6795	4852.4778	9034.5672	66896.6476;
	75	18	0.00219	0.02369	0.59584	1434	1434	1434	0	0	1	-360	360	2711.1598	-2222.9552	-1302.3035	17315.4478;
	18	76	0.00137	0.01625	0.41184	1662	1662	1662	0	0	1	-360	360	2252.5467	27139.5354	-104.3493	-1757.5919;
	18	101	0.00231	0.02769	0.70144	1662	1662	1662	0	0	1	-360	360	127305.4445	-173237.7379	96532.5932	2826659.2229;
	124	19	0.01696	0.12366	0.19699	464	464	464	0	0	1	-360	360	459120.3761	-444206.8304	-169281.4856	2517367.3657;
	425	19	0.00165	0.06818	0	160	160	160	1.0241	0	1	-360	360	422787.3044	-1145875.3934	-354362.4145	3973274.7823;
	67	20	0.00331	0.03425	0.85888	831	831	831	0	0	1	-360	360	8468579.7696	85872695.0046	-36433.7951	85467.6975;
	447	20	0.00137	0.06119	-0.01504	250	250	250	1.0796	0	1	-360	360	-281.2567	4283.6460	370.6392	-289.2986;
	448	20	0.00137	0.06119	-0.01504	250	250	250	1.0923	0	1	-360	360	574.0625	4971.1468	-456.3670	287.8474;
	502	21	0.00165	0.07107	0	160	160	160	0.9922	0	1	-360	360	20609.0070	-12985.2168	3749.1270	1062156.4799;
	112	22	0.00465	0.02618	0.02962	362	362	362	0	0	1	-360	360	1560.8983	-741.0859	21817.0090	132308.1982;
	526	22	0.00165	0.06901	0	160	160	160	1.0685	0	1	-360	360	-1587.9593	768.9383	2860.9273	52471.9827;
	527	22	0.00165	0.06901	0	160	160	160	1.0424	0	1	-360	360	660.7550	-228.0970	568.3023	51632.4912;
	37	23	0.01163	0.07031	0.1058	394	394	394	0	0	1	-360	360	19.9036	-159.1141	4686.5141	28502.2105;
	46	23	0.00837	0.04868	0.07348	457	457	457	0	0	1	-360	360	-105.2360	54.1813	7243.4328	41385.3212;
	53	23	0.01122	0.06558	0.09835	274	274	274	0	0	1	-360	360	-13006.1516	11337.3104	20115.2478	30089.4937;
	540	23	0.0014	0.0668	0	160	160	160	1.0182	0	1	-360	360	-200.7416	-202.2809	843.4696	30869.5904;
	54	24	0.00769	0.05727	0.08789	160	160	160	0	0	1	-360	360	-5313.2783	6208.4003	8529.2931	17694.6149;
	545	24	0.00151	0.06715	0	160	160	160	1.0161	0	1	-360	360	-24.7661	-364.2993	318.0988	13408.8625;
	41	25	0.00556	0.04145	0.0636	274	274	274	0	0	1	-360	360	104.5537	-48.8013	1390.5127	11179.5250;
	53	25	0.00452	0.03368	0.05169	464	464	464	0	0	1	-360	360	10929.9538	24217.6378	-4144.7251	26316.9283;
	54	25	0.00019	0.0014	0.00213	464	464	464	0	0	1	-360	360	-46386.9798	-72552.6451	55199.7027	137487.8240;
	564	25	0.00157	0.07808	0	160	160	160	1.0276	0	1	-360	360	-521.1868	-1182.1602	531.8596	1712.9476;
	38	26	0.00698	0.05196	0.07967	160	160	160	0	0	1	-360	360	1.7645	-0.6156	297.9682	2227.1607;
	568	26	0.00149	0.06616	0	160	160	160	1.013	0	1	-360	360	75.2184	-2.5691	-35.1592	1781.3032;
	28	27	0	0.0001	0	876	876	876	0	0	1	-360	360	4478.4514	-733.3915	-4478.4514	29462.5060;
	33	27	0.0024	0.01494	0.02253	160	160	160	0	0	1	-360	360	-38.5371	6095.4037	932.6179	-530.9092;
	48	27	0.01213	0.06215	0.09371	362	362	362	0	0	1	-360	360	-0.0063	0.0272	9.3676	47.7918;
	27	74	0.01116	0.07231	0.10367	304	304	304	0	0	1	-360	360	-620.2269	3174.4273	38392.2176	240648.6369;
	47	28	0.00248	0.01798	0.02759	464	464	464	0	0	1	-360	360	264.6994	2208.4557	51.1226	80.7167;
	28	88	0.01488	0.08161	0.1148	362	362	362	0	0	1	-360	360	-0.1039	1.3020	0.4602	0.6467;
	30	29	0	0.0001	0	876	876	876	0	0	1	-360	360	-3021.2032	1589.4860	3021.2032	16512.8782;
	29	32	0.00034	0.02097	0	500	500	500	1.0619	0	1	-360	360	6.3939	64.2589	-5.3669	-0.9156;
	45	29	0.00545	0.04021	0.06699	464	464	464	0	0	1	-360	360	1.0588	1.6206	4.5515	39.7194;
	48	29	0.00574	0.04283	0.06573	464	464	464	0	0	1	-360	360	-0.0131	0.0259	4.8046	35.6755;
	613	29	0.00157	0.06775	0	160	160	160	1.0016	0	1	-360	360	-27.4410	31.8811	28.6038	18.2973;
	46	30	0.00545	0.04021	0.06699	464	464	464	0	0	1	-360	360	-0.4240	-0.2424	0.5030	0.8229;
	49	30	0.00707	0.04541	0.06931	362	362	362	0	0	1	-360	360	-1.3193	5.9116	2.5832	2.1969;
	32	31	0	0.0001	0	1593	1593	1593	0	0	1	-360	360	314.5442	1081.4444	-314.5442	11845.0114;
	39	31	0.00176	0.02144	0.57344	1385	1385	1385	0	0	1	-360	360	0.2185	-0.2443	3.8753	49.8029;
	36	32	0.00167	0.0189	0.54176	498	498	498	0	0	1	-360	360	24.6066	308.3085	1.6942	-12.3182;
	615	33	0.00163	0.06946	0	160	160	160	1.0291	0	1	-360	360	-875.4290	585.4702	922.7054	1429.1432;
	35	34	0	0.0001	0	1593	1593	1593	0	0	1	-360	360	6443.0620	6009.2194	-6443.0620	-757.4709;
	34	51	0.00113	0.01406	0.37488	1385	1385	1385	0	0	1	-360	360	-21.2857	75.2450	29.9399	32.2376;
	183	34	0.00188	0.02287	0.6432	1385	1385	1385	0	0	1	-360	360	-30.7273	87.9161	42.6984	57.0115;
	183	35	0.00188	0.02287	0.6432	1385	1385	1385	0	0	1	-360	360	-11.0471	119.2751	30.8193	120.3349;
	617	35	0.00135	0.06052	0	250	250	250	1.0654	0	1	-360	360	-39.3831	907.0947	56.8089	-125.9027;
	644	36	0.00135	0.06052	0	250	250	250	1.1003	0	1	-360	360	73.4306	35.5611	-72.1997	19.6205;
	645	36	0.00153	0.06156	0	250	250	250	1.0971	0	1	-360	360	49.0725	3.7477	-47.1109	75.1778;
	38	37	0	0.0001	0	876	876	876	0	0	1	-360	360	-6.9313	22.4631	6.9313	657.0264;
	663	37	0.00157	0.06616	0	160	160	160	1.0009	0	1	-360	360	718.4780	35727.5941	126.1428	-135.1653;
	55	38	0.00316	0.02076	0.03146	394	394	394	0	0	1	-360	360	20.3608	137.7270	0.5339	-0.5027;
	40	39	0	0.0001	0	1593	1593	1593	0	0	1	-360	360	22.0001	1144.9598	-22.0001	-6.4598;
	682	39	0.00139	0.05984	0	250	250	250	1.0603	0	1	-360	360	0.3970	13.8078	-0.0746	0.0717;
	44	40	0.00109	0.01277	0.34176	1385	1385	1385	0	0	1	-360	360	123.7199	670.9329	-69.0331	-31.8564;
	679	40	0.0014	0.06235	0	250	250	250	1.0996	0	1	-360	360	-0.9694	38.0163	2.0275	9.1076;
	42	41	0	0.0001	0	876	876	876	0	0	1	-360	360	41.7359	318.9479	-41.7359	713.8578;
	41	43	0.00081	0.03	0	400	400	400	1.0377	0	1	-360	360	-4.3218	2.9421	4.8033	14.8930;
	80	41	0.00372	0.0438	0.10096	609	609	609	0	0	1	-360	360	0.0018	0.0007	0.0937	1.1208;
	47	42	0.00882	0.06564	0.10066	274	274	274	0	0	1	-360	360	71.1681	573.3546	5.0890	-7.7928;
	54	42	0.00355	0.02643	0.04056	392	392	392	0	0	1	-360	360	844.7864	5947.2404	-42.7234	20.9324;
	689	42	0.00145	0.06839	0	160	160	160	1.0037	0	1	-360	360	-0.0720	0.4826	0.0893	0.3342;
	44	43	0	0.0001	0	1593	1593	1593	0	0	1	-360	360	10228.5743	76488.7453	-10228.5743	-12592.2310;
	99	43	0.00169	0.01994	0.50624	831	831	831	0	0	1	-360	360	44.6245	67.6539	-36.9607	22.2962;
	50	44	0.00094	0.01097	0.29376	1662	1662	1662	0	0	1	-360	360	988.1876	1989.6343	-679.3165	1611.3774;
	46	45	0	0.0001	0	876	876	876	0	0	1	-360	360	72.8205	138.2359	-72.8205	10.3641;
	49	45	0.01048	0.06097	0.09205	394	394	394	0	0	1	-360	360	0.3532	2.8782	0.0780	-0.3793;
	706	47	0.00157	0.06775	0	160	160	160	1.0249	0	1	-360	360	1.0126	-8.5162	11.8783	564.7931;
	707	47	0.00165	0.06775	0	160	160	160	1.0201	0	1	-360	360	9.4934	17.3694	5.3113	590.5200;
	49	48	0	0.0001	0	876	876	876	0	0	1	-360	360	-4.4886	2056.1644	4.4886	-0.8085;
	717	48	0.00163	0.06783	0	160	160	160	1.023	0	1	-360	360	0.0016	0.1203	0.0013	-0.0003;
	716	49	0.00143	0.06831	0	160	160	160	1.0238	0	1	-360	360	0.3643	-0.5950	-0.3326	2.1095;
	51	50	0	0.0001	0	1593	1593	1593	0	0	1	-360	360	-19512.7739	2897.2886	19512.7739	150827.3933;
	98	50	0.0015	0.01788	0.4512	831	831	831	0	0	1	-360	360	-0.0529	0.1668	70.1829	832.3875;
	100	50	0.00469	0.05544	1.4048	831	831	831	0	0	1	-360	360	335098.1935	4194848.8887	34381.8778	1786.2110;
	726	50	0.00139	0.0608	0	250	250	250	1.0815	0	1	-360	360	-26.8816	42.9847	34.2913	281.1254;
	727	51	0.0014	0.06235	0	250	250	250	1.0819	0	1	-360	360	-2.6781	1.4675	2.7906	3.5438;
	53	52	0.00151	0.00878	0.01316	160	160	160	0	0	1	-360	360	19568.8463	68790.5989	-3157.2449	26632.2664;
	754	52	0.00163	0.06754	0	160	160	160	1.0317	0	1	-360	360	1382.5535	3271.5334	-1258.8530	1854.0691;
	181	55	0.01434	0.08353	0.12603	394	394	394	0	0	1	-360	360	379.0643	1249.5789	-132.2836	181.4238;
	778	55	0.00161	0.06762	0	160	160	160	0.9979	0	1	-360	360	1779.6439	129956.0823	1267.2558	-1986.2949;
	74	56	0.00207	0.01281	0.02052	394	394	394	0	0	1	-360	360	70734.4804	1237357.0341	109197.5987	-124048.8968;
	796	56	0.00207	0.06777	-0.003	160	160	160	1.0389	0	1	-360	360	-2070.4721	7098.3560	2530.5396	7964.6968;
	81	57	0.00083	0.00496	0.00726	137	137	137	0	0	1	-360	360	1537.4962	1078.9298	958.3040	13835.4951;
	80	58	0.00083	0.00496	0.00726	137	137	137	0	0	1	-360	360	0.0123	-0.0242	4.3376	26.0182;
	63	59	0.00207	0.01405	0.02265	362	362	362	0	0	1	-360	360	4510.0835	11920.5004	1585.8229	29451.1255;
	82	59	0.01116	0.07045	0.11606	362	362	362	0	0	1	-360	360	871.4842	3663.7731	736.8762	6466.4891;
	821	59	0.00165	0.06798	-0.00319	160	160	160	1.0178	0	1	-360	360	-71.0806	7.1715	176.7448	4346.6624;
	60	85	0.01095	0.0593	0.08441	362	362	362	0	0	1	-360	360	-1014.4630	4549.6111	2186.3845	1785.2138;
	104	60	0.00599	0.04091	0.07212	464	464	464	0	0	1	-360	360	1849.8449	10315.3775	1125.4260	9989.5453;
	834	60	0.00145	0.06921	-0.00532	160	160	160	0.9936	0	1	-360	360	53436.2095	746144.2458	-38341.4929	-25514.3360;
	836	60	0.00372	0.12583	-0.00242	100	100	100	1.0154	0	1	-360	360	140.4802	3.7329	-92.5448	1617.9436;
	62	61	0	0.0001	0	876	876	876	0	0	1	-360	360	3078.3471	23206.5080	-3078.3471	901.9504;
	64	61	0.00517	0.03843	0.05876	464	464	464	0	0	1	-360	360	159.1888	1112.4949	-13.6343	-31.8718;
	109	61	0.00083	0.0062	0.00958	464	464	464	0	0	1	-360	360	80.9053	312.1357	-34.4850	34.6099;
	184	61	0.01219	0.07066	0.11742	274	274	274	0	0	1	-360	360	258.9789	1349.7149	-26.7980	-9.7392;
	82	62	0.00165	0.01095	0.01955	464	464	464	0	0	1	-360	360	214.4076	8045.0651	868.5986	-858.8292;
	110	62	0.00083	0.0062	0.00949	464	464	464	0	0	1	-360	360	20.0768	81.1722	48.4008	430.3358;
	71	63	0.00475	0.03079	0.04879	362	362	362	0	0	1	-360	360	7691.4386	22136.8674	-4782.5475	-3304.3911;
	91	63	0.00455	0.02769	0.04608	394	394	394	0	0	1	-360	360	397998.4326	2858960.1412	74380.7788	13952.0749;
	94	63	0.00186	0.0126	0.02236	464	464	464	0	0	1	-360	360	-1111.5059	-12.1547	1643.5916	3615.9409;
	96	63	0.00826	0.04236	0.06118	362	362	362	0	0	1	-360	360	-36.1942	-20.6801	270.1395	1218.7394;
	64	69	0.00434	0.02975	0.05266	464	464	464	0	0	1	-360	360	-2869.6571	9412.6444	12218.0832	54629.7680;
	79	64	0.00351	0.02438	0.03998	362	362	362	0	0	1	-360	360	-10.8153	-8.8380	268.0054	1794.3479;
	93	64	0.00186	0.0126	0.02236	464	464	464	0	0	1	-360	360	-7.8829	-8.4818	520.6552	3481.5981;
	95	64	0.00826	0.04236	0.06118	362	362	362	0	0	1	-360	360	-21.0151	256.5279	306.7852	1207.5610;
	90	65	0.00785	0.04132	0.06389	394	394	394	0	0	1	-360	360	292340.7117	708376.1526	320254.0588	2513261.8077;
	65	91	0.00227	0.01446	0.02585	394	394	394	0	0	1	-360	360	-819685.2956	10858234.7754	4085826.5487	9945124.9233;
	66	67	0.00031	0.02094	0	500	500	500	1.0616	0	1	-360	360	-84251927.1697	158758367.9151	85537705.6876	-71906102.8697;
	66	68	0.00248	0.02355	0.04763	457	457	457	0	0	1	-360	360	12671966.1429	176900193.1951	-3763627.8582	-92572769.0567;
	152	66	0.01033	0.08285	0.13959	464	464	464	0	0	1	-360	360	8989900.4967	16349948.1926	7996308.2464	119257636.2197;
	138	67	0.00194	0.02056	0.51584	866	866	866	0	0	1	-360	360	41310223.4436	-3112123.0917	-28651577.2671	136423344.2570;
	911	67	0.00156	0.06269	-0.00992	250	250	250	1.0656	0	1	-360	360	-3035983.7705	-3954927.5550	4014093.8374	43276287.8665;
	912	67	0.00156	0.06269	-0.00992	250	250	250	1.066	0	1	-360	360	-91470.5579	-229281.6252	1274237.7213	47774774.7600;
	68	78	0.00579	0.04153	0.06621	464	464	464	0	0	1	-360	360	-1965544.4082	50082268.2935	8078848.3024	-6315611.6665;
	978	68	0.00165	0.06694	-0.0031	160	160	160	1.0083	0	1	-360	360	-159879.4478	-3532475.1025	853015.5055	31656540.5167;
	979	68	0.00145	0.06653	-0.00319	160	160	160	1.006	0	1	-360	360	24229.5072	-58222.5441	754761.3588	35804279.2884;
	83	69	0.00145	0.00992	0.01762	464	464	464	0	0	1	-360	360	-1840.0937	-1523.3553	22337.3506	141740.0269;
	995	69	0.00145	0.0655	-0.00252	160	160	160	1.0107	0	1	-360	360	-13001.1128	15415.4185	13953.4880	27608.2866;
	996	69	0.00145	0.07045	-0.00252	160	160	160	1.0025	0	1	-360	360	2915.7688	-3894.8493	-2693.1906	14711.1109;
	70	73	0.00145	0.00971	0.01626	457	457	457	0	0	1	-360	360	14019417.7959	91077995.4993	4090554.0457	30190235.1753;
	107	70	0.00062	0.00413	0.00697	457	457	457	0	0	1	-360	360	165500347.6356	79588594.2525	-135169033.1022	122452325.5143;
	72	71	0	0.0001	0	876	876	876	0	0	1	-360	360	0.0000	0.0000	0.0000	0.0000;
	86	71	0.00165	0.00971	0.01423	362	362	362	0	0	1	-360	360	-4692.8718	-14246.0303	14350.8972	71075.3806;
	1059	71	0.00145	0.06983	-0.00232	160	160	160	1.0193	0	1	-360	360	4039.3093	16209.4768	-3247.9057	21905.0659;
	1060	71	0.00165	0.06777	-0.00281	160	160	160	0.9558	0	1	-360	360	-3270.2571	102.0040	3572.9540	12331.9280;
	73	75	0.00075	0.02444	-0.00832	330	330	330	1.0544	1.7	1	-360	360	39635.3483	2719621.2947	43348.1005	-15189.1409;
	87	73	0.00393	0.02851	0.04501	464	464	464	0	0	1	-360	360	3819.4991	4703.0293	350227.3751	2562040.7911;
	74	76	0.00075	0.02469	-0.008	330	330	330	1.0606	1.7	1	-360	360	12215.4690	636628.9277	7131.6255	340.2896;
	74	108	0.00083	0.00517	0.00871	464	464	464	0	0	1	-360	360	2829592.1409	2209136.8228	-2224471.9841	1559984.5226;
	76	75	0	0.0001	0	1593	1593	1593	0	0	1	-360	360	-43501.5088	-23547.7809	43501.5088	147371.0730;
	76	105	0.00244	0.02756	0.768	845	845	845	0	0	1	-360	360	16.7836	96.3431	-4.7936	38.2098;
	84	77	0.00393	0.02665	0.04617	457	457	457	0	0	1	-360	360	1408.8719	827.6138	1467.1027	18663.7068;
	85	77	0.00186	0.01384	0.02284	464	464	464	0	0	1	-360	360	13724.0032	9027.8386	-6990.7803	41066.8042;
	1095	77	0.00165	0.06694	-0.0029	160	160	160	1.0162	0	1	-360	360	1570.3685	906.0567	-1356.7077	7762.8299;
	1096	77	0.00145	0.06736	-0.00658	160	160	160	1.0085	0	1	-360	360	166.0552	285.0147	-0.7789	7394.5071;
	78	103	0.00496	0.03368	0.05963	464	464	464	0	0	1	-360	360	477252.6674	2832951.1213	-65213.3842	-38041.7262;
	1106	78	0.00145	0.06839	-0.00319	160	160	160	1.0272	0	1	-360	360	343379.6452	-122013.4297	-319939.3124	1227760.7423;
	88	79	0.0031	0.02335	0.0362	464	464	464	0	0	1	-360	360	0.0402	0.7709	0.0298	-0.2436;
	81	80	0	0.0001	0	876	876	876	0	0	1	-360	360	2.1010	11736.1252	-2.1010	3.4791;
	80	96	0.01591	0.0876	0.11684	362	362	362	0	0	1	-360	360	0.0002	-0.0010	0.1226	0.6735;
	1114	80	0.00165	0.06694	-0.00232	160	160	160	0.9876	0	1	-360	360	664.3855	26957.1551	0.0223	-0.2370;
	93	81	0.01777	0.11674	0.16359	362	362	362	0	0	1	-360	360	0.0475	0.2008	1.5089	9.9285;
...
];

%%-----  OPF Data  -----%%
%% generator cost data
%	1	startup	shutdown	n	x1	y1	...	xn	yn
%	2	startup	shutdown	n	c(n-1)	...	c0
mpc.gencost = [
	2	0	0	3	0	117.95	0;
	2	0	0	3	0	48.89	0;
	2	0	0	3	0	98.47	0;
	2	0	0	3	0	128.73	0;
	2	0	0	3	0	158.23	0;
	2	0	0	3	0	165.62	0;
	2	0	0	3	0	71.22	0;
	2	0	0	3	0	102.25	0;
	2	0	0	3	0	147.83	0;
	2	0	0	3	0	75.37	0;
	2	0	0	3	0	86.01	0;
	2	0	0	3	0	0	0;
	2	0	0	3	0	68.74	0;
	2	0	0	3	0	81.91	0;
	2	0	0	3	0	81.88	0;
	2	0	0	3	0	58.78	0;
	2	0	0	3	0	85.57	0;
	2	0	0	3	0	101.38	0;
	2	0	0	3	0	122.43	0;
	2	0	0	3	0	96.62	0;
	2	0	0	3	0	106.73	0;
	2	0	0	3	0	0	0;
	2	0	0	3	0	151.94	0;
	2	0	0	3	0	107.51	0;
	2	0	0	3	0	103.53	0;
	2	0	0	3	0	0	0;
	2	0	0	3	0	0	0;
	2	0	0	3	0	136.48	0;
	2	0	0	3	0	157.46	0;
	2	0	0	3	0	83.97	0;
	2	0	0	3	0	170.74	0;
	2	0	0	3	0	80.91	0;
	2	0	0	3	0	147.6	0;
	2	0	0	3	0	158.75	0;
	2	0	0	3	0	146.94	0;
	2	0	0	3	0	96.32	0;
	2	0	0	3	0	0	0;
	2	0	0	3	0	0	0;
	2	0	0	3	0	0	0;
	2	0	0	3	0	0	0;
	2	0	0	3	0	0	0;
	2	0	0	3	0	0	0;
	2	0	0	3	0	0	0;
	2	0	0	3	0	0	0;
	2	0	0	3	0	0	0;
	2	0	0	3	0	0	0;
	2	0	0	3	0	0	0;
	2	0	0	3	0	0	0;
	2	0	0	3	0	0	0;
	2	0	0	3	0	0	0;
	2	0	0	3	0	0	0;
	2	0	0	3	0	0	0;
	2	0	0	3	0	0	0;
	2	0	0	3	0	0	0;
	2	0	0	3	0	0	0;
	2	0	0	3	0	0	0;
	2	0	0	3	0	0	0;
	2	0	0	3	0	0	0;
	2	0	0	3	0	0	0;
	2	0	0	3	0	0	0;
	2	0	0	3	0	0	0;
	2	0	0	3	0	0	0;
	2	0	0	3	0	0	0;
	2	0	0	3	0	0	0;
	2	0	0	3	0	134.98	0;
	2	0	0	3	0	0	0;
	2	0	0	3	0	0	0;
	2	0	0	3	0	0	0;
	2	0	0	3	0	0	0;
	2	0	0	3	0	0	0;
	2	0	0	3	0	0	0;
	2	0	0	3	0	0	0;
	2	0	0	3	0	0	0;
	2	0	0	3	0	0	0;
	2	0	0	3	0	0	0;
	2	0	0	3	0	0	0;
	2	0	0	3	0	0	0;
	2	0	0	3	0	0	0;
	2	0	0	3	0	0	0;
	2	0	0	3	0	0	0;
	2	0	0	3	0	0	0;
	2	0	0	3	0	0	0;
	2	0	0	3	0	0	0;
	2	0	0	3	0	0	0;
	2	0	0	3	0	0	0;
	2	0	0	3	0	0	0;
	2	0	0	3	0	0	0;
	2	0	0	3	0	0	0;
	2	0	0	3	0	0	0;
	2	0	0	3	0	0	0;
	2	0	0	3	0	0	0;
	2	0	0	3	0	142.94	0;
	2	0	0	3	0	128.22	0;
	2	0	0	3	0	0	0;
	2	0	0	3	0	0	0;
	2	0	0	3	0	0	0;
	2	0	0	3	0	0	0;
	2	0	0	3	0	0	0;
	2	0	0	3	0	0	0;
	2	0	0	3	0	0	0;
	2	0	0	3	0	0	0;
	2	0	0	3	0	141.73	0;
	2	0	0	3	0	0	0;
	2	0	0	3	0	0	0;
	2	0	0	3	0	0	0;
	2	0	0	3	0	0	0;
	2	0	0	3	0	0	0;
	2	0	0	3	0	0	0;
	2	0	0	3	0	0	0;
	2	0	0	3	0	0	0;
	2	0	0	3	0	100.82	0;
	2	0	0	3	0	151.9	0;
	2	0	0	3	0	0	0;
	2	0	0	3	0	0	0;
	2	0	0	3	0	0	0;
	2	0	0	3	0	0	0;
	2	0	0	3	0	0	0;
	2	0	0	3	0	0	0;
	2	0	0	3	0	0	0;
	2	0	0	3	0	114.15	0;
	2	0	0	3	0	0	0;
	2	0	0	3	0	0	0;
	2	0	0	3	0	0	0;
	2	0	0	3	0	0	0;
	2	0	0	3	0	0	0;
	2	0	0	3	0	0	0;
	2	0	0	3	0	87.95	0;
	2	0	0	3	0	130.25	0;
	2	0	0	3	0	0	0;
	2	0	0	3	0	0	0;
	2	0	0	3	0	0	0;
	2	0	0	3	0	0	0;
	2	0	0	3	0	0	0;
	2	0	0	3	0	0	0;
	2	0	0	3	0	0	0;
	2	0	0	3	0	0	0;
	2	0	0	3	0	0	0;
	2	0	0	3	0	145.97	0;
	2	0	0	3	0	137.58	0;
	2	0	0	3	0	147.36	0;
	2	0	0	3	0	0	0;
	2	0	0	3	0	0	0;
	2	0	0	3	0	0	0;
	2	0	0	3	0	0	0;
	2	0	0	3	0	0	0;
	2	0	0	3	0	0	0;
	2	0	0	3	0	0	0;
	2	0	0	3	0	0	0;
	2	0	0	3	0	0	0;
	2	0	0	3	0	0	0;
	2	0	0	3	0	0	0;
	2	0	0	3	0	82.92	0;
	2	0	0	3	0	133.59	0;
	2	0	0	3	0	0	0;
	2	0	0	3	0	152.95	0;
	2	0	0	3	0	67.35	0;
	2	0	0	3	0	134.93	0;
	2	0	0	3	0	0	0;
	2	0	0	3	0	61.32	0;
	2	0	0	3	0	0	0;
	2	0	0	3	0	0	0;
	2	0	0	3	0	0	0;
	2	0	0	3	0	0	0;
	2	0	0	3	0	0	0;
	2	0	0	3	0	0	0;
	2	0	0	3	0	0	0;
	2	0	0	3	0	0	0;
	2	0	0	3	0	0	0;
	2	0	0	3	0	0	0;
	2	0	0	3	0	0	0;
	2	0	0	3	0	0	0;
	2	0	0	3	0	0	0;
	2	0	0	3	0	0	0;
	2	0	0	3	0	0	0;
	2	0	0	3	0	0	0;
	2	0	0	3	0	61.4	0;
	2	0	0	3	0	114.99	0;
	2	0	0	3	0	122.64	0;
	2	0	0	3	0	118.84	0;
	2	0	0	3	0	0	0;
	2	0	0	3	0	0	0;
	2	0	0	3	0	0	0;
	2	0	0	3	0	0	0;
	2	0	0	3	0	0	0;
	2	0	0	3	0	0	0;
	2	0	0	3	0	0	0;
	2	0	0	3	0	143.83	0;
	2	0	0	3	0	67.48	0;
	2	0	0	3	0	88	0;
	2	0	0	3	0	0	0;
	2	0	0	3	0	0	0;
	2	0	0	3	0	0	0;
	2	0	0	3	0	0	0;
	2	0	0	3	0	0	0;
	2	0	0	3	0	0	0;
	2	0	0	3	0	129.86	0;
	2	0	0	3	0	108.16	0;
	2	0	0	3	0	0	0;
	2	0	0	3	0	0	0;
	2	0	0	3	0	0	0;
...
];
